/*--------------------------------*- C++ -*----------------------------------*\
  =========                 |
  \\      /  F ield         | OpenFOAM: The Open Source CFD Toolbox
   \\    /   O peration     | Website:  https://openfoam.org
    \\  /    A nd           | Version:  11
     \\/     M anipulation  |
\*---------------------------------------------------------------------------*/
FoamFile
{
    format      ascii;
    class       volScalarField;
    location    "0";
    object      mu;
}
// * * * * * * * * * * * * * * * * * * * * * * * * * * * * * * * * * * * * * //

dimensions      [1 -1 -1 0 0 0 0];

internalField   uniform 1.002e-3;

boundaryField
{
    inlet
    {
        type            calculated;
        value           uniform 1.002e-3;
    }
    
    outlet
    {
        type            calculated;
        value           uniform 1.002e-3;
    }
    
    upperWall
    {
        type            calculated;
        value           uniform 1.002e-3;
    }
    
    lowerWall
    {
        type            calculated;
        value           uniform 1.002e-3;
    }
    
    frontAndBack
    {
        type            calculated;
        value           uniform 1.002e-3;
    }
}

// ************************************************************************* //
