/*--------------------------------*- C++ -*----------------------------------*\
  =========                 |
  \\      /  F ield         | OpenFOAM: The Open Source CFD Toolbox
   \\    /   O peration     | Website:  https://openfoam.org
    \\  /    A nd           | Version:  11
     \\/     M anipulation  |
\*---------------------------------------------------------------------------*/
FoamFile
{
    format      ascii;
    class       dictionary;
    location    "system";
    object      fvSolution;
}
// * * * * * * * * * * * * * * * * * * * * * * * * * * * * * * * * * * * * * //
solvers
{
    "(p|rho)"                 // pressure (p) and density (rho)
    {
        solver          PCG;  // PCG: Preconditioned Conjugate Gradient
        preconditioner  DIC;  // DIC: Diagonal-based Incomplete Cholesky preconditioner
        tolerance       1e-6;
        relTol          0.01;
    }

    "(p|rho)Final"
    {
        $p;
        relTol          0;
    }
    
    "(U|e|k|nuTilda)"
    {
        solver          smoothSolver;
        smoother        symGaussSeidel;
        tolerance       1e-6;
        relTol          0.01;
    }

    "(U|e|k|nuTilda)Final"
    {
        $U;
        relTol          0;
    }
}

PIMPLE
{
    momentumPredictor yes;
    nOuterCorrectors 3;
    nCorrectors     1;
    nNonOrthogonalCorrectors 0;
    pRefCell                 0; 
    pRefValue                0; 
}

//
SIMPLE
{
    nNonOrthogonalCorrectors 0;
    pRefCell 0.01;
    pRefValue 0.01;
    residualControl
    {
        P    1e-6;
        U    1e-6;
    }
}

//
PISO
{
    nCorrectors     2;
    nNonOrthogonalCorrectors 2;
    pRefCell        0;
    pRefValue       0;
}

relaxationFactors
{
    equations
    {
        ".*"  1;
    }
}
// ************************************************************************* //
